/*--------------------------------*- C++ -*----------------------------------*\
| =========                 |                                                 |
| \\      /  F ield         | OpenFOAM: The Open Source CFD Toolbox           |
|  \\    /   O peration     | Version:  v1906                                 |
|   \\  /    A nd           | Web:      www.OpenFOAM.com                      |
|    \\/     M anipulation  |                                                 |
\*---------------------------------------------------------------------------*/
FoamFile
{
    version     2.0;
    format      ascii;
    class       volScalarField;
    object      p_rgh;
}
// * * * * * * * * * * * * * * * * * * * * * * * * * * * * * * * * * * * * * //
#include "../boundaryConditions"
dimensions      [1 -1 -2 0 0 0 0];

internalField   uniform $p_in;

boundaryField
{

    outlet
    {
        type            fixedValue;
        value           $internalField;
    }

    "wall.*"
    {
        type            zeroGradient;
        value           $internalField;

    }

    inlet
    {
        type            zeroGradient;
        value           $internalField;

    }
    
    symmetry
    {
    type            symmetry;
    }    
}

// ************************************************************************* //
