/*--------------------------------*- C++ -*----------------------------------*\
| =========                 |                                                 |
| \\      /  F ield         | OpenFOAM: The Open Source CFD Toolbox           |
|  \\    /   O peration     | Version:  v1906                                 |
|   \\  /    A nd           | Web:      www.OpenFOAM.com                      |
|    \\/     M anipulation  |                                                 |
\*---------------------------------------------------------------------------*/
FoamFile
{
    version     2.0;
    format      ascii;
    class       volScalarField;
    object      T;
}
// * * * * * * * * * * * * * * * * * * * * * * * * * * * * * * * * * * * * * //
#include "../boundaryConditions"
dimensions      [0 0 0 1 0 0 0];

internalField   uniform $T_in;

boundaryField
{
    outlet
    { 
        type            inletOutlet;
        inletValue      $internalField;
        value           $internalField;
    }
    "wall.*"
    {

 	type            fixedValue;
        value           uniform $T_wall;       
        

    }
   

    inlet
    { 
        type            fixedValue;
        value           uniform $T_in;
    }

    symmetry
    {
    type            symmetry;
    }


}


// ************************************************************************* //
