/*--------------------------------*- C++ -*----------------------------------*\
| =========                 |                                                 |
| \\      /  F ield         | OpenFOAM: The Open Source CFD Toolbox           |
|  \\    /   O peration     | Version:  v1906                                 |
|   \\  /    A nd           | Web:      www.OpenFOAM.com                      |
|    \\/     M anipulation  |                                                 |
\*---------------------------------------------------------------------------*/
FoamFile
{
    version     2.0;
    format      ascii;
    class       dictionary;
    location    "system";
    object      fvSchemes;
}
// * * * * * * * * * * * * * * * * * * * * * * * * * * * * * * * * * * * * * //
ddtSchemes
{
    default         Euler;
}

gradSchemes
{
    default         Gauss linear;
    grad(p)         Gauss linear limited 0.5;
}

divSchemes
{
    default         none;
    div(phi,U)      bounded Gauss linear;
    //div(phi,U)      Gauss linearUpwind grad(U);

    turbulence      bounded Gauss limitedLinear 1;
    div(phi,k)      $turbulence;
    div(phi,epsilon) $turbulence;
    div(phi,omega)  $turbulence;
    div(phi,R)      $turbulence;
    div(R)          Gauss linear;
    div(phi,nuTilda) $turbulence;
    div((nuEff*dev2(T(grad(U))))) Gauss linear;
    div(((rho*nuEff)*dev2(T(grad(U))))) Gauss linear;
    div(phi,K)		Gauss linear;
    div(phi,h)		Gauss linear;
    div(phi,e)		$turbulence;
    div(phi,Ekp)    $turbulence;

    div(phiv,p)		Gauss upwind;
}

laplacianSchemes
{
    default         Gauss linear limited corrected 0.5;
}

interpolationSchemes
{
    default         linear;
}

snGradSchemes
{
    default         corrected;
}

wallDist
{
    method meshWave;
}


// ************************************************************************* //
