/*--------------------------------*- C++ -*----------------------------------*\
| =========                 |                                                 |
| \\      /  F ield         | OpenFOAM: The Open Source CFD Toolbox           |
|  \\    /   O peration     | Version:  v1906                                 |
|   \\  /    A nd           | Web:      www.OpenFOAM.com                      |
|    \\/     M anipulation  |                                                 |
\*---------------------------------------------------------------------------*/
FoamFile
{
    version     2.0;
    format      ascii;
    class       dictionary;
    location    "system";
    object      fvSolution;
}
// * * * * * * * * * * * * * * * * * * * * * * * * * * * * * * * * * * * * * //

solvers
{
    "rho.*"
    {
        solver          PCG;
        preconditioner  DIC;
        tolerance       0;
        relTol          0;
    }

    p_rgh
    {
    /*
        solver          PCG;
        preconditioner  DIC;
        tolerance       1e-8;
        relTol          0.01;
        
    */
        solver          GAMG;
        tolerance       1e-08;
        relTol          0.05;
        smoother        GaussSeidel;
        nCellsInCoarsestLevel 20;
    
    }

    p_rghFinal
    {
        $p_rgh;
        relTol          0;
    }




    Phi
    {
	    $p_rgh;
    }

    "(U|h|e|k|epsilon|R|omega|nuTilda)"
    {
        solver          PBiCGStab;
        preconditioner  DILU;
        tolerance       1e-6;
        relTol          0.1;
    }

    "(U|h|e|k|epsilon|R|omega|nuTilda)Final"
    {
        $U;
        relTol          0;
    }
}

SIMPLE
{
    nNonOrthogonalCorrectors 0;
    consistent yes;
residualControl
    {
        p                   1e-6;
        U                   1e-6;
        "(k|epsilon|omega)" 1e-6;
    }
}



PIMPLE
{
    nNonOrthogonalCorrectors 1;
    nCorrectors          1;
    nOuterCorrectors    4;

    residualControl
    {
        U
        {
                tolerance  5e-2;
                relTol      0;
        }
        p
        {
                tolerance  5e-2;
                relTol      0;
        }
     }

}

relaxationFactors
{
    fields
    {
        p_rgh      0.6;
        p_rghFinal   1;

    }
    equations
    {
        "(U|h|e|k|epsilon|omega|R|nuTilda)"    0.7;
        "(U|h|e|k|epsilon|omega|R|nuTilda)Final"   1;
    }
}



// ************************************************************************* //
