 /*--------------------------------*- C++ -*----------------------------------*\
| =========                 |                                                 |
| \\      /  F ield         | OpenFOAM: The Open Source CFD Toolbox           |
|  \\    /   O peration     | Version:  v2112                                 |
|   \\  /    A nd           | Website:  www.openfoam.com                      |
|    \\/     M anipulation  |                                                 |
\*---------------------------------------------------------------------------*/
FoamFile
{
    version     2.0;
    format      ascii;
    class       dictionary;
    object      convergenceCriteria;
}
// * * * * * * * * * * * * * * * * * * * * * * * * * * * * * * * * * * * * * //

//https://www.openfoam.com/documentation/guides/latest/doc/guide-fos-utilities-runtime-control.html
 
convergenceCriteria
{
    type            runTimeControl;
    libs            ("libutilityFunctionObjects.so");
    conditions
    {
        
        condition_p
        {
            type            average;
            functionObject  plane.plane_inlet;
            fields          (p);
            tolerance       1e-3;
            windowType	     approximate;
            window          80;
            groupID         1;
        }
 
    }
}

