/*--------------------------------*- C++ -*----------------------------------*\
| =========                 |                                                 |
| \\      /  F ield         | OpenFOAM: The Open Source CFD Toolbox           |
|  \\    /   O peration     | Version:  v2112                                 |
|   \\  /    A nd           | Website:  www.openfoam.com                      |
|    \\/     M anipulation  |                                                 |
\*---------------------------------------------------------------------------*/
FoamFile
{
    version     2.0;
    format      ascii;
    class       dictionary;
    object      sampling;
}
// * * * * * * * * * * * * * * * * * * * * * * * * * * * * * * * * * * * * * //




// * * * * * * * *           Vizualizating       * * * * * * * * * * * * * * //

planes
{
    type            surfaces;


    writeControl    timeStep;
    writeInterval   1;
    writeFields     false;
    
    surfaceFormat   none;
    store           true;

    interpolationScheme cellPoint;
    
    fields          ( p T);

    surfaces
    {
        plane_inlet
        {
            type    	 plane;
            planeType   pointAndNormal;
            pointAndNormalDict
            {
                normal  (0 0 1);
                point   (0 0 0.05);
            }
        }

        plane_outlet
        {
            type    	plane;
            planeType  pointAndNormal;
            pointAndNormalDict
            {
                normal  (0 0 1);
                point   (0 0 0.45);
            }
        }
    }
}



// * * * * * * * * * * * * * * * Calculations  * * * * * * * * * * * * * * * //

_init
{
    type            surfaceFieldValue;
    libs            (fieldFunctionObjects);

    writeFields     false;
    writeToFile     true;
    log             true;
    timeStart       0;
    timeEnd         10000;
    executeControl  timeStep;
    executeInterval 1;
    writeControl    timeStep;
    writeInterval   1;

}

calculation_inlet
{
    ${_init}

    regionType      functionObjectSurface;
    name            planes.plane_inlet;
    
    operation       weightedAreaAverage;
    weightField     p;	
    fields          (p T);

}

calculation_outlet
{
    ${_init}

    regionType      functionObjectSurface;
    name            planes.plane_outlet;
    
    operation       weightedAreaAverage;
    weightField     p;	
    fields          (p T);

}

calculation_walls
{
    ${_init}

    regionType      patch;
    name            wall_1;
    
    operation       weightedAreaAverage;
    weightField     T;	
    fields          (p T heatTransferCoeff(T));

}
#remove "_.*"


// ************************************************************************* //
